10

C         -1.06581        2.46847        0.13535
O         -2.03786        1.68105        0.70926
O         -0.03463        1.82587       -0.51149
C         -0.25972        0.50689       -0.12155
C         -1.74587        0.44675        0.13306
O         -1.30616        3.79260       -0.10254
H         -2.30212        0.37219       -0.83020
H         -2.01127       -0.40962        0.78852
H          0.05109       -0.23082       -0.89137
H          0.30114        0.32622        0.82449
